1656655465.610439s 1 https://api.dandiarchive.org/api/zarr/0f216614-27da-4b64-a634-76a852e2f990.zarr/0/0/0/2/12/86
1656655465.574706s 1 https://dandiarchive.s3.amazonaws.com/zarr/0f216614-27da-4b64-a634-76a852e2f990/0/0/0/2/12/86?versionId=MT3Ds.pL7ubR8HG7_OtCSvnJc33e5sbc
